45

N   -3.1720   -0.0440    0.0690
C   -1.8148    0.0410    0.6599
C   -4.2498    0.0724    1.1563
C   -3.3694   -1.3833   -0.6555
C   -3.3974    1.0847   -0.9473
C   -0.7798   -0.0787   -0.4497
C    0.6399    0.0509    0.1102
C   -4.1306    1.4200    1.8337
C   -3.1530   -2.5163    0.3238
C   -4.8039    0.9874   -1.4962
C    1.7220   -0.0298   -0.9725
C    3.1291    0.0201   -0.4328
C    3.7587    1.2469   -0.2851
C    3.7708   -1.1615   -0.0933
C    5.0603    1.2932    0.2141
C    5.0726   -1.1151    0.4059
C    5.7173    0.1123    0.5596
H   -1.6873    1.0291    1.1125
H   -1.6868   -0.7003    1.4540
H   -5.2428   -0.1333    0.7493
H   -4.0422   -0.6828    1.9202
H   -4.4080   -1.4574   -0.9878
H   -2.7269   -1.4397   -1.5377
H   -3.1662    2.0528   -0.4956
H   -2.7231    0.9340   -1.7946
H   -0.8267   -1.0449   -0.9591
H   -0.8759    0.7068   -1.2027
H    0.7371    1.0036    0.6467
H    0.8065   -0.7410    0.8521
H   -4.8904    1.4670    2.6244
H   -3.1792    1.5833    2.3443
H   -4.3451    2.2691    1.1814
H   -3.3117   -3.4606   -0.2126
H   -2.1340   -2.5757    0.7127
H   -3.8624   -2.5376    1.1535
H   -4.9271    1.8007   -2.2240
H   -5.0130    0.0798   -2.0654
H   -5.5936    1.1565   -0.7618
H    1.5942   -0.9540   -1.5518
H    1.5817    0.7855   -1.6945
H    3.2546    2.1721   -0.5494
H    3.2764   -2.1220   -0.2072
H    5.5622    2.2488    0.3344
H    5.5839   -2.0346    0.6756
H    6.7307    0.1484    0.9486

