325

H       8.123311996459961      5.415272235870361     36.359539031982422
H       8.120852470397949     14.446672439575195     36.359539031982422
H      17.153711318969727      5.415272235870361     36.359539031982422
H      17.151252746582031     14.446672439575195     36.359539031982422
H       5.440076828002930      0.925718426704407     36.359539031982422
H       5.437617301940918      9.957117080688477     36.359539031982422
H      14.470477104187012      0.925718426704407     36.359539031982422
H      19.498302459716797      3.092170476913452     34.802600860595703
H      19.495843887329102     12.123570442199707     34.802600860595703
H      10.467903137207031      3.092170476913452     34.802600860595703
H      10.465443611145020     12.123570442199707     34.802600860595703
H       5.939222335815430      1.425172924995422     34.802600860595703
H       5.936762809753418     10.456572532653809     34.802600860595703
H      14.969622611999512      1.425172924995422     34.802600860595703
H      18.965484619140625      3.616136074066162     36.359413146972656
H      18.963024139404297     12.647535324096680     36.359413146972656
H       9.935083389282227      3.616136074066162     36.359413146972656
H       9.932623863220215     12.647535324096680     36.359413146972656
H       3.587846517562866      8.105644226074219     36.359413146972656
H       3.590305805206299     -0.925753593444824     36.359413146972656
H      12.620706558227539     -0.925753593444824     36.359413146972656
H       7.590258121490479      5.939346313476562     34.802536010742188
H       7.587799072265625     14.970746040344238     34.802536010742188
H      16.620658874511719      5.939346313476562     34.802536010742188
H      16.618200302124023     14.970746040344238     34.802536010742188
H       3.088718891143799      7.606226444244385     34.802536010742188
H       3.091178178787231     -1.425171732902527     34.802536010742188
H      12.121578216552734     -1.425171732902527     34.802536010742188
H       9.029125213623047      4.515754222869873     33.649330139160156
H       9.026665687561035     13.547152519226074     33.649330139160156
H      18.059526443481445      4.515754222869873     33.649330139160156
H      18.057065963745117     13.547152519226074     33.649330139160156
H       4.512740612030029      9.031399726867676     33.649330139160156
H       4.515200138092041      0.000000000000000     33.649330139160156
H      13.545599937438965      0.000000000000000     33.649330139160156
H       8.104079246520996      5.441300868988037     42.128131866455078
H       8.101619720458984     14.472701072692871     42.128131866455078
H      -0.926321208477020      5.441300868988037     42.128131866455078
H      -0.928781628608704     14.472701072692871     42.128131866455078
H       5.440076828002930      0.925718426704407     42.127010345458984
H       5.437617301940918      9.957117080688477     42.127010345458984
H      14.470477104187012      0.925718426704407     42.127010345458984
H      14.468018531799316      9.957117080688477     42.127010345458984
H       1.422810077667236      3.090481758117676     40.545326232910156
H       1.420350790023804     12.121881484985352     40.545326232910156
H      10.453209877014160      3.090481758117676     40.545326232910156
H      10.450750350952148     12.121881484985352     40.545326232910156
H       3.088718891143799      7.606226444244385     40.544075012207031
H       3.091178178787231     -1.425171732902527     40.544075012207031
H      12.119118690490723      7.606226444244385     40.544075012207031
H      12.121578216552734     -1.425171732902527     40.544075012207031
H       0.923852741718292      3.590098619461060     42.128196716308594
H       0.921393454074860     12.621498107910156     42.128196716308594
H       9.954252243041992      3.590098619461060     42.128196716308594
H       9.951792716979980     12.621498107910156     42.128196716308594
H       3.587846517562866      8.105644226074219     42.126949310302734
H       3.590305805206299     -0.925753593444824     42.126949310302734
H      12.618247032165527      8.105644226074219     42.126949310302734
H      12.620706558227539     -0.925753593444824     42.126949310302734
H       7.605166912078857      5.940890789031982     40.545326232910156
H       7.602707386016846     14.972290039062500     40.545326232910156
H      -1.425233364105225      5.940890789031982     40.545326232910156
H      -1.427692770957947     14.972290039062500     40.545326232910156
H       5.939222335815430      1.425172924995422     40.544139862060547
H       5.936762809753418     10.456572532653809     40.544139862060547
H      14.969622611999512      1.425172924995422     40.544139862060547
H      14.967163085937500     10.456572532653809     40.544139862060547
H      -0.001229666988365      4.515717983245850     39.435047149658203
H      -0.003688992001116     13.547117233276367     39.435047149658203
H       9.029170989990234      4.515717983245850     39.435047149658203
H       9.026711463928223     13.547117233276367     39.435047149658203
H       4.515200138092041      0.000027093999961     39.433925628662109
H       4.512740612030029      9.031426429748535     39.433925628662109
H      13.545599937438965      0.000027093999961     39.433925628662109
H      13.543141365051270      9.031426429748535     39.433925628662109
H       8.103212356567383      5.442031860351562     48.045951843261719
H       8.100752830505371     14.473430633544922     48.045951843261719
H      17.133611679077148      5.442031860351562     48.045951843261719
H      17.131153106689453     14.473430633544922     48.045951843261719
H       5.441033363342285      0.926522195339203     48.044948577880859
H       5.438574314117432      9.957921981811523     48.044948577880859
H      14.471432685852051      0.926522195339203     48.044948577880859
H      14.468974113464355      9.957921981811523     48.044948577880859
H       1.421825408935547      3.091999053955078     46.455829620361328
H       1.419366121292114     12.123397827148438     46.455829620361328
H      10.452225685119629      3.091999053955078     46.455829620361328
H      10.449766159057617     12.123397827148438     46.455829620361328
H       3.089928388595581      7.607590198516846     46.454521179199219
H       3.087469100952148     16.638990402221680     46.454521179199219
H      12.120328903198242      7.607590198516846     46.454521179199219
H      12.117869377136230     16.638990402221680     46.454521179199219
H       0.924746990203857      3.589349031448364     48.045951843261719
H       0.922287702560425     12.620747566223145     48.045951843261719
H       9.955147743225098      3.589349031448364     48.045951843261719
H       9.952688217163086     12.620747566223145     48.045951843261719
H       3.586898326873779      8.104849815368652     48.044891357421875
H       3.584439039230347     17.136249542236328     48.044891357421875
H      12.617299079895020      8.104849815368652     48.044891357421875
H      12.614839553833008     17.136249542236328     48.044891357421875
H       7.606161117553711      5.939363956451416     46.455829620361328
H       7.603701591491699     14.970763206481934     46.455829620361328
H      16.636560440063477      5.939363956451416     46.455829620361328
H      16.634101867675781     14.970763206481934     46.455829620361328
H       5.938012599945068      1.423800110816956     46.454521179199219
H       5.935553073883057     10.455199241638184     46.454521179199219
H      14.968412399291992      1.423800110816956     46.454521179199219
H      14.965953826904297     10.455199241638184     46.454521179199219
H      -0.001166456961073      4.515726566314697     45.354801177978516
H      -0.003625781042501     13.547125816345215     45.354801177978516
H       9.029233932495117      4.515726566314697     45.354801177978516
H       9.026774406433105     13.547125816345215     45.354801177978516
H       4.515209197998047      0.000000000000000     45.353675842285156
H       4.512750148773193      9.031399726867676     45.353675842285156
H      13.545609474182129      0.000000000000000     45.353675842285156
H      13.543149948120117      9.031399726867676     45.353675842285156
C      18.059797286987305      4.515265941619873     34.740116119384766
C      18.057336807250977     13.546665191650391     34.740116119384766
C       9.029397010803223      4.515265941619873     34.740116119384766
C       9.026937484741211     13.546665191650391     34.740116119384766
C       4.512740612030029      9.031399726867676     34.740116119384766
C       4.515200138092041      0.000000000000000     34.740116119384766
C      13.545599937438965      0.000000000000000     34.740116119384766
C      -0.001067070988938      4.515537261962891     40.524833679199219
C      -0.003526394953951     13.546936988830566     40.524833679199219
C       9.029333114624023      4.515537261962891     40.524833679199219
C       9.026873588562012     13.546936988830566     40.524833679199219
C       4.512731552124023      9.031390190124512     40.523582458496094
C       4.515191078186035     -0.000008613000318     40.523582458496094
C      13.543132781982422      9.031390190124512     40.523582458496094
C      13.545591354370117     -0.000008613000318     40.523582458496094
C       9.028971672058105      4.515609264373779     46.445522308349609
C       9.026513099670410     13.547008514404297     46.445522308349609
C      18.059371948242188      4.515609264373779     46.445522308349609
C      18.056913375854492     13.547008514404297     46.445522308349609
C       4.515209197998047      0.000018062999516     46.444206237792969
C       4.512750148773193      9.031417846679688     46.444206237792969
C      13.545609474182129      0.000018062999516     46.444206237792969
C      13.543149948120117      9.031417846679688     46.444206237792969
N      18.886627197265625      3.695820093154907     35.343368530273438
N      18.884166717529297     12.727219581604004     35.343368530273438
N       9.856225967407227      3.695820093154907     35.343368530273438
N       9.853766441345215     12.727219581604004     35.343368530273438
N       8.201951980590820      5.335841178894043     35.343681335449219
N       8.199492454528809     14.367240905761719     35.343681335449219
N      17.232353210449219      5.335841178894043     35.343681335449219
N      17.229892730712891     14.367240905761719     35.343681335449219
N       3.684716224670410      8.203039169311523     35.343368530273438
N       3.687175512313843     -0.828358769416809     35.343368530273438
N      12.717576026916504     -0.828358769416809     35.343368530273438
N       5.343225002288818      0.828368961811066     35.343681335449219
N       5.340765476226807      9.859768867492676     35.343681335449219
N      14.373624801635742      0.828368961811066     35.343681335449219
N       0.826469600200653      3.687159061431885     41.116462707519531
N       0.824010252952576     12.718558311462402     41.116462707519531
N       9.856869697570801      3.687159061431885     41.116462707519531
N       9.854410171508789     12.718558311462402     41.116462707519531
N       3.684716224670410      8.203039169311523     41.115337371826172
N       3.687175512313843     -0.828358769416809     41.115337371826172
N      12.715116500854492      8.203039169311523     41.115337371826172
N      12.717576026916504     -0.828358769416809     41.115337371826172
N       8.201236724853516      5.344493389129639     41.116588592529297
N       8.198777198791504     14.375892639160156     41.116588592529297
N      -0.829164803028107      5.344493389129639     41.116588592529297
N      -0.831623077392578     14.375892639160156     41.116588592529297
N       5.343225002288818      0.828368961811066     41.115337371826172
N       5.340765476226807      9.859768867492676     41.115337371826172
N      14.373624801635742      0.828368961811066     41.115337371826172
N      14.371165275573730      9.859768867492676     41.115337371826172
N       0.827309489250183      3.686969518661499     47.035964965820312
N       0.824850142002106     12.718368530273438     47.035964965820312
N       9.857709884643555      3.686969518661499     47.035964965820312
N       9.855250358581543     12.718368530273438     47.035964965820312
N       3.684319019317627      8.202335357666016     47.034652709960938
N       3.681859493255615     17.233734130859375     47.034652709960938
N      12.714718818664551      8.202335357666016     47.034652709960938
N      12.712259292602539     17.233734130859375     47.034652709960938
N       8.200676918029785      5.344574451446533     47.036026000976562
N       8.198217391967773     14.375974655151367     47.036026000976562
N      17.231077194213867      5.344574451446533     47.036026000976562
N      17.228618621826172     14.375974655151367     47.036026000976562
N       5.343648910522461      0.829091489315033     47.034652709960938
N       5.341189384460449      9.860491752624512     47.034652709960938
N      14.374048233032227      0.829091489315033     47.034652709960938
N      14.371589660644531      9.860491752624512     47.034652709960938
I       9.030400276184082      0.000000000000000     34.487102508544922
I       9.027940750122070      9.031399726867676     34.487102508544922
I       0.000000000000000      0.000000000000000     34.487102508544922
I      -0.002459323965013      9.031399726867676     34.487102508544922
I       4.513988971710205      4.515699863433838     34.488227844238281
I       4.511529445648193     13.547099113464355     34.488227844238281
I      13.544388771057129      4.515699863433838     34.488227844238281
I      13.541930198669434     13.547099113464355     34.488227844238281
I       0.000000000000000      0.000000000000000     40.860324859619141
I      -0.002459323965013      9.031399726867676     40.860324859619141
I       9.030400276184082      0.000000000000000     40.860324859619141
I       9.027940750122070      9.031399726867676     40.860324859619141
I       4.513970375061035      4.515699863433838     40.861141204833984
I       4.511511325836182     13.547099113464355     40.861141204833984
I      13.544370651245117      4.515699863433838     40.861141204833984
I      13.541911125183105     13.547099113464355     40.861141204833984
I       2.585040569305420      1.930181622505188     37.956031799316406
I       2.582581281661987     10.961581230163574     37.956031799316406
I      11.615441322326660      1.930181622505188     37.956031799316406
I      11.612981796264648     10.961581230163574     37.956031799316406
I       6.442891120910645      7.101235866546631     37.956031799316406
I       6.440432071685791     16.132635116577148     37.956031799316406
I      15.473291397094727      7.101235866546631     37.956031799316406
I      15.470831871032715     16.132635116577148     37.956031799316406
I       1.928853750228882      6.446612834930420     37.958217620849609
I       1.926394462585449     15.478012084960938     37.958217620849609
I      10.959253311157227      6.446612834930420     37.958217620849609
I      10.956793785095215     15.478012084960938     37.958217620849609
I       7.099087238311768      2.584804773330688     37.958217620849609
I       7.096627712249756     11.616203308105469     37.958217620849609
I      16.129487991333008      2.584804773330688     37.958217620849609
I      16.127029418945312     11.616203308105469     37.958217620849609
I       0.000000000000000      0.000000000000000     47.173561096191406
I      -0.002459323965013      9.031399726867676     47.173561096191406
I       9.030400276184082      0.000000000000000     47.173561096191406
I       9.027940750122070      9.031399726867676     47.173561096191406
I       4.513979434967041      4.515699863433838     47.174251556396484
I       4.511520385742188     13.547099113464355     47.174251556396484
I      13.544379234313965      4.515699863433838     47.174251556396484
I      13.541919708251953     13.547099113464355     47.174251556396484
I       2.451923370361328      2.062952280044556     44.040126800537109
I       2.449464082717896     11.094351768493652     44.040126800537109
I      11.482322692871094      2.062952280044556     44.040126800537109
I      11.479864120483398     11.094351768493652     44.040126800537109
I       6.576017856597900      6.968447208404541     44.040126800537109
I       6.573558330535889     15.999846458435059     44.040126800537109
I      15.606418609619141      6.968447208404541     44.040126800537109
I      15.603959083557129     15.999846458435059     44.040126800537109
I       2.061076879501343      6.578814506530762     44.040000915527344
I       2.058617591857910     15.610214233398438     44.040000915527344
I      11.091477394104004      6.578814506530762     44.040000915527344
I      11.089017868041992     15.610214233398438     44.040000915527344
I       6.966864109039307      2.452593803405762     44.040065765380859
I       6.964404582977295     11.483993530273438     44.040065765380859
I      15.997263908386230      2.452593803405762     44.040065765380859
I      15.994805335998535     11.483993530273438     44.040065765380859
I       2.431626558303833      2.083218812942505     50.068485260009766
I       2.429167032241821     11.114618301391602     50.068485260009766
I      11.462026596069336      2.083218812942505     50.068485260009766
I      11.459567070007324     11.114618301391602     50.068485260009766
I       6.596314430236816      6.948180675506592     50.068485260009766
I       6.593854904174805     15.979579925537109     50.068485260009766
I      15.626713752746582      6.948180675506592     50.068485260009766
I      15.624254226684570     15.979579925537109     50.068485260009766
I       2.081128120422363      6.599009037017822     50.069046020507812
I       2.078668832778931     15.630408287048340     50.069046020507812
I      11.111528396606445      6.599009037017822     50.069046020507812
I      11.109068870544434     15.630408287048340     50.069046020507812
I       6.946813106536865      2.432390689849854     50.069046020507812
I       6.944353580474854     11.463789939880371     50.069046020507812
I      15.977212905883789      2.432390689849854     50.069046020507812
I      15.974754333496094     11.463789939880371     50.069046020507812
Pb      0.000009024999599      0.000018062999516     37.630409240722656
Pb     -0.002450298983604      9.031417846679688     37.630409240722656
Pb      9.030408859252930      0.000018062999516     37.630409240722656
Pb      9.027949333190918      9.031417846679688     37.630409240722656
Pb      4.513970375061035      4.515690326690674     37.630908966064453
Pb      4.511511325836182     13.547090530395508     37.630908966064453
Pb     13.544370651245117      4.515690326690674     37.630908966064453
Pb     13.541911125183105     13.547090530395508     37.630908966064453
Pb      0.000009028000022      0.000009031000445     44.042999267578125
Pb     -0.002450295956805      9.031408309936523     44.042999267578125
Pb      9.030408859252930      0.000009031000445     44.042999267578125
Pb      9.027949333190918      9.031408309936523     44.042999267578125
Pb      4.513970375061035      4.515690326690674     44.042751312255859
Pb      4.511511325836182     13.547090530395508     44.042751312255859
Pb     13.544370651245117      4.515690326690674     44.042751312255859
Pb     13.541911125183105     13.547090530395508     44.042751312255859
Pb      0.000000000000000      0.000000000000000     50.447280883789062
Pb     -0.002459323965013      9.031399726867676     50.447280883789062
Pb      9.030400276184082      0.000000000000000     50.447280883789062
Pb      9.027940750122070      9.031399726867676     50.447280883789062
Pb      4.513970375061035      4.515699863433838     50.447280883789062
Pb      4.511511325836182     13.547099113464355     50.447280883789062
Pb     13.544370651245117      4.515699863433838     50.447280883789062
Pb     13.541911125183105     13.547099113464355     50.447280883789062
C      13.217466354370117      7.323296070098877     31.848461151123047
C      12.227313041687012      6.954853057861328     32.766223907470703
C      12.889570236206055      8.179491996765137     30.787960052490234
C      10.954950332641602      7.515794277191162     32.682418823242188
C      11.603001594543457      8.715469360351562     30.688022613525391
C      10.642875671386719      8.397648811340332     31.650220870971680
N      14.110414505004883     10.324308395385742     35.020492553710938
C      13.956542968750000      9.124432563781738     34.152217864990234
C      12.789587974548340     11.035881996154785     35.086952209472656
C      14.441432952880859      9.979726791381836     36.457336425781250
C      15.169036865234375     11.230904579162598     34.426765441894531
C      15.289779663085938      8.410937309265137     33.958297729492188
C      15.134535789489746      6.990170955657959     33.466670989990234
C      12.229198455810547     11.339831352233887     33.700080871582031
C      13.597662925720215      8.806549072265625     36.928405761718750
C      15.695823669433594     12.307978630065918     35.340068817138672
C      14.628110885620117      6.863784313201904     32.034164428710938
H      13.195521354675293      8.487276077270508     34.603454589843750
H      13.601361274719238      9.485440254211426     33.187149047851562
H      12.079703330993652     10.365370750427246     35.567726135253906
H      12.892857551574707     11.895684242248535     35.745906829833984
H      15.508454322814941      9.749330520629883     36.510467529296875
H      14.198581695556641     10.857259750366211     37.057331085205078
H      16.027101516723633     10.610983848571777     34.177619934082031
H      14.793197631835938     11.647267341613770     33.494945526123047
H      15.904140472412109      8.942106246948242     33.227828979492188
H      15.830982208251953      8.373038291931152     34.906723022460938
H      16.114042282104492      6.508964538574219     33.506347656250000
H      14.492347717285156      6.481214046478271     34.175140380859375
H      11.736734390258789     10.453321456909180     33.294162750244141
H      12.972767829895020     11.667325973510742     32.974838256835938
H      11.477783203125000     12.127913475036621     33.753265380859375
H      13.745705604553223      8.658900260925293     37.997272491455078
H      13.877359390258789      7.885667800903320     36.411445617675781
H      12.527688026428223      8.953471183776855     36.782520294189453
H      14.995815277099609     12.583750724792480     36.122360229492188
H      15.913227081298828     13.194238662719727     34.741222381591797
H      16.651769638061523     12.000948905944824     35.770370483398438
H      15.290754318237305      7.432156562805176     31.374681472778320
H      14.683541297912598      5.816513061523438     31.724641799926758
H      12.474514007568359      6.315468788146973     33.608779907226562
H      13.649871826171875      8.486248016357422     30.077941894531250
H      10.234035491943359      7.369165420532227     33.480270385742188
H      11.369746208190918      9.433272361755371     29.908336639404297
H       9.675159454345703      8.890712738037109     31.659774780273438
